CM Start angle A1 = 0
CM Stop angle A2 = 360
CM Radial sections = 12
CM Circular sections = 5
CM Rotate X, Y, Z = 0, 0, 0
CM Move X, Y, Z = 0, 0, 0
CE
SY lamda = 3
SY D = 0.954293
GW	100	2	0	0	0	.3	0	0	.007865
GW	101	2	.3	0	0	.6	0	0	.017595
GW	102	2	.6	0	0	.9	0	0	.023378
GW	103	2	.9	0	0	1.2	0	0	.027212
GW	104	2	1.2	0	0	1.5	0	0	.02994
GW	105	2	0	0	0	.259808	.15	0	.007865
GW	106	2	.259808	.15	0	.519615	.3	0	.017595
GW	107	2	.519615	.3	0	.779423	.45	0	.023378
GW	108	2	.779423	.45	0	1.039	.6	0	.027212
GW	109	2	1.039	.6	0	1.299	.75	0	.02994
GW	110	2	0	0	0	.15	.259808	0	.007865
GW	111	2	.15	.259808	0	.3	.519615	0	.017595
GW	112	2	.3	.519615	0	.45	.779423	0	.023378
GW	113	2	.45	.779423	0	.6	1.039	0	.027212
GW	114	2	.6	1.039	0	.75	1.299	0	.02994
GW	115	2	0	0	0	0	.3	0	.007865
GW	116	2	0	.3	0	0	.6	0	.017595
GW	117	2	0	.6	0	0	.9	0	.023378
GW	118	2	0	.9	0	0	1.2	0	.027212
GW	119	2	0	1.2	0	0	1.5	0	.02994
GW	120	2	0	0	0	-.15	.259808	0	.007865
GW	121	2	-.15	.259808	0	-.3	.519615	0	.017595
GW	122	2	-.3	.519615	0	-.45	.779423	0	.023378
GW	123	2	-.45	.779423	0	-.6	1.039	0	.027212
GW	124	2	-.6	1.039	0	-.75	1.299	0	.02994
GW	125	2	0	0	0	-.259808	.15	0	.007865
GW	126	2	-.259808	.15	0	-.519615	.3	0	.017595
GW	127	2	-.519615	.3	0	-.779423	.45	0	.023378
GW	128	2	-.779423	.45	0	-1.039	.6	0	.027212
GW	129	2	-1.039	.6	0	-1.299	.75	0	.02994
GW	130	2	0	0	0	-.3	0	0	.007865
GW	131	2	-.3	0	0	-.6	0	0	.017595
GW	132	2	-.6	0	0	-.9	0	0	.023378
GW	133	2	-.9	0	0	-1.2	0	0	.027212
GW	134	2	-1.2	0	0	-1.5	0	0	.02994
GW	135	2	0	0	0	-.259808	-.15	0	.007865
GW	136	2	-.259808	-.15	0	-.519615	-.3	0	.017595
GW	137	2	-.519615	-.3	0	-.779423	-.45	0	.023378
GW	138	2	-.779423	-.45	0	-1.039	-.6	0	.027212
GW	139	2	-1.039	-.6	0	-1.299	-.75	0	.02994
GW	140	2	0	0	0	-.15	-.259808	0	.007865
GW	141	2	-.15	-.259808	0	-.3	-.519615	0	.017595
GW	142	2	-.3	-.519615	0	-.45	-.779423	0	.023378
GW	143	2	-.45	-.779423	0	-.6	-1.039	0	.027212
GW	144	2	-.6	-1.039	0	-.75	-1.299	0	.02994
GW	145	2	0	0	0	0	-.3	0	.007865
GW	146	2	0	-.3	0	0	-.6	0	.017595
GW	147	2	0	-.6	0	0	-.9	0	.023378
GW	148	2	0	-.9	0	0	-1.2	0	.027212
GW	149	2	0	-1.2	0	0	-1.5	0	.02994
GW	150	2	0	0	0	.15	-.259808	0	.007865
GW	151	2	.15	-.259808	0	.3	-.519615	0	.017595
GW	152	2	.3	-.519615	0	.45	-.779423	0	.023378
GW	153	2	.45	-.779423	0	.6	-1.039	0	.027212
GW	154	2	.6	-1.039	0	.75	-1.299	0	.02994
GW	155	2	0	0	0	.259808	-.15	0	.007865
GW	156	2	.259808	-.15	0	.519615	-.3	0	.017595
GW	157	2	.519615	-.3	0	.779423	-.45	0	.023378
GW	158	2	.779423	-.45	0	1.039	-.6	0	.027212
GW	159	2	1.039	-.6	0	1.299	-.75	0	.02994
GW	160	1	.3	0	0	.259808	.15	0	.007865
GW	161	1	.259808	.15	0	.15	.259808	0	.007865
GW	162	1	.15	.259808	0	0	.3	0	.007865
GW	163	1	0	.3	0	-.15	.259808	0	.007865
GW	164	1	-.15	.259808	0	-.259808	.15	0	.007865
GW	165	1	-.259808	.15	0	-.3	0	0	.007865
GW	166	1	-.3	0	0	-.259808	-.15	0	.007865
GW	167	1	-.259808	-.15	0	-.15	-.259808	0	.007865
GW	168	1	-.15	-.259808	0	0	-.3	0	.007865
GW	169	1	0	-.3	0	.15	-.259808	0	.007865
GW	170	1	.15	-.259808	0	.259808	-.15	0	.007865
GW	171	1	.259808	-.15	0	.3	0	0	.007865
GW	172	2	.6	0	0	.519615	.3	0	.017595
GW	173	2	.519615	.3	0	.3	.519615	0	.017595
GW	174	2	.3	.519615	0	0	.6	0	.017595
GW	175	2	0	.6	0	-.3	.519615	0	.017595
GW	176	2	-.3	.519615	0	-.519615	.3	0	.017595
GW	177	2	-.519615	.3	0	-.6	0	0	.017595
GW	178	2	-.6	0	0	-.519615	-.3	0	.017595
GW	179	2	-.519615	-.3	0	-.3	-.519615	0	.017595
GW	180	2	-.3	-.519615	0	0	-.6	0	.017595
GW	181	2	0	-.6	0	.3	-.519615	0	.017595
GW	182	2	.3	-.519615	0	.519615	-.3	0	.017595
GW	183	2	.519615	-.3	0	.6	0	0	.017595
GW	184	3	.9	0	0	.779423	.45	0	.023378
GW	185	3	.779423	.45	0	.45	.779423	0	.023378
GW	186	3	.45	.779423	0	0	.9	0	.023378
GW	187	3	0	.9	0	-.45	.779423	0	.023378
GW	188	3	-.45	.779423	0	-.779423	.45	0	.023378
GW	189	3	-.779423	.45	0	-.9	0	0	.023378
GW	190	3	-.9	0	0	-.779423	-.45	0	.023378
GW	191	3	-.779423	-.45	0	-.45	-.779423	0	.023378
GW	192	3	-.45	-.779423	0	0	-.9	0	.023378
GW	193	3	0	-.9	0	.45	-.779423	0	.023378
GW	194	3	.45	-.779423	0	.779423	-.45	0	.023378
GW	195	3	.779423	-.45	0	.9	0	0	.023378
GW	196	4	1.2	0	0	1.039	.6	0	.027212
GW	197	4	1.039	.6	0	.6	1.039	0	.027212
GW	198	4	.6	1.039	0	0	1.2	0	.027212
GW	199	4	0	1.2	0	-.6	1.039	0	.027212
GW	200	4	-.6	1.039	0	-1.039	.6	0	.027212
GW	201	4	-1.039	.6	0	-1.2	0	0	.027212
GW	202	4	-1.2	0	0	-1.039	-.6	0	.027212
GW	203	4	-1.039	-.6	0	-.6	-1.039	0	.027212
GW	204	4	-.6	-1.039	0	0	-1.2	0	.027212
GW	205	4	0	-1.2	0	.6	-1.039	0	.027212
GW	206	4	.6	-1.039	0	1.039	-.6	0	.027212
GW	207	4	1.039	-.6	0	1.2	0	0	.027212
GW	208	5	1.5	0	0	1.299	.75	0	.02994
GW	209	5	1.299	.75	0	.75	1.299	0	.02994
GW	210	5	.75	1.299	0	0	1.5	0	.02994
GW	211	5	0	1.5	0	-.75	1.299	0	.02994
GW	212	5	-.75	1.299	0	-1.299	.75	0	.02994
GW	213	5	-1.299	.75	0	-1.5	0	0	.02994
GW	214	5	-1.5	0	0	-1.299	-.75	0	.02994
GW	215	5	-1.299	-.75	0	-.75	-1.299	0	.02994
GW	216	5	-.75	-1.299	0	0	-1.5	0	.02994
GW	217	5	0	-1.5	0	.75	-1.299	0	.02994
GW	218	5	.75	-1.299	0	1.299	-.75	0	.02994
GW	219	5	1.299	-.75	0	1.5	0	0	.02994
GH	220	155	0.7495	11.243	D/2	D/2	D/2	D/2	0.015
GE	0
GN	-1
EK
EX	0	220	1	0	1	0	0
FR	0	250	0	0	30	0.7
EN
