CM
CE
GW 1 41 0 0 -2.5 0 0 2.5 0.01
GW 2 41 0 0 32.50 0 0 37.50 0.01
GE 0
GN -1
EK
EX 0 1 21 0 1 0 0 0
FR 0 0 0 0 30 0
RP 0 37 73 1003 -180 0 5 5 0 0
EN