CM
CE
GW            1            9   0.00000000   0.00000000   0.00312500   0.01562500   0.00000000   0.03018829   0.00031250
GW            2            9   0.00000000   0.00000000   0.00312500  -0.01562500  -0.00000000   0.03018829   0.00031250
GW            3            9   0.00000000   0.00000000   0.00312500   0.00781250   0.01353165   0.03018829   0.00031250
GW            4            9   0.00000000   0.00000000   0.00312500  -0.00781250  -0.01353165   0.03018829   0.00031250
GW            5            9   0.00000000   0.00000000   0.00312500  -0.00781250   0.01353165   0.03018829   0.00031250
GW            6            9   0.00000000   0.00000000   0.00312500   0.00781250  -0.01353165   0.03018829   0.00031250
GW            7            1   0.00000000   0.00000000  -0.00312500   0.00000000   0.00000000   0.00312500   0.00031250
GW            8            9   0.00000000   0.00000000  -0.00312500   0.01562500   0.00000000  -0.03018829   0.00031250
GW            9            9   0.00000000   0.00000000  -0.00312500  -0.01562500  -0.00000000  -0.03018829   0.00031250
GW           10            9   0.00000000   0.00000000  -0.00312500   0.00781250   0.01353165  -0.03018829   0.00031250
GW           11            9   0.00000000   0.00000000  -0.00312500  -0.00781250  -0.01353165  -0.03018829   0.00031250
GW           12            9   0.00000000   0.00000000  -0.00312500  -0.00781250   0.01353165  -0.03018829   0.00031250
GW           13            9   0.00000000   0.00000000  -0.00312500   0.00781250  -0.01353165  -0.03018829   0.00031250
GE 0
GN -1
EK
EX	0	7	1	0	1	0	0
FR	0	0	0	0	4800	0
EN
